[TITLE]

[JUNCTIONS]
 2                                    30.0000
 3                                    30.0000
 4                                    30.0000
 5                                    30.0000
 6                                    30.0000
 7                                    30.0000
 8                                    30.0000
 9                                    30.0000
 10                                   30.0000
 11                                   30.0000
 12                                   30.0000
 13                                   30.0000
 14                                   30.0000
 15                                   30.0000
 16                                   30.0000
 17                                   30.0000
 18                                   30.0000
 19                                   30.0000
 20                                   30.0000
 21                                   30.0000
 22                                   30.0000
 23                                   30.0000
 24                                   30.0000
 25                                   30.0000
 26                                   30.0000
 27                                   30.0000
 28                                   30.0000
 29                                   30.0000
 30                                   30.0000
 31                                   30.0000
 32                                   30.0000

[RESERVOIRS]
 1                                   100.0000 

[TANKS]

[PIPES]
 1                               1                               2                                   100.0000    1016.0000     130.0000       0.0000 
 2                               2                               3                                  1350.0000    1016.0000     130.0000       0.0000 
 3                               3                               4                                   900.0000    1016.0000     130.0000       0.0000 
 4                               4                               5                                  1150.0000    1016.0000     130.0000       0.0000 
 5                               5                               6                                  1450.0000    1016.0000     130.0000       0.0000 
 6                               6                               7                                   450.0000    1016.0000     130.0000       0.0000 
 7                               7                               8                                   850.0000    1016.0000     130.0000       0.0000 
 8                               8                               9                                   850.0000    1016.0000     130.0000       0.0000 
 9                               9                               10                                  800.0000    1016.0000     130.0000       0.0000 
 10                              10                              11                                  950.0000     762.0000     130.0000       0.0000 
 11                              11                              12                                 1200.0000     762.0000     130.0000       0.0000 
 12                              12                              13                                 3500.0000     609.6000     130.0000       0.0000 
 13                              10                              14                                  800.0000     406.4000     130.0000       0.0000 
 14                              14                              15                                  500.0000     406.4000     130.0000       0.0000 
 15                              15                              16                                  550.0000     304.8000     130.0000       0.0000 
 16                              17                              16                                 2730.0000     406.4000     130.0000       0.0000 
 17                              17                              18                                 1750.0000     508.0000     130.0000       0.0000 
 18                              18                              19                                  800.0000     609.6000     130.0000       0.0000 
 19                              19                              3                                   400.0000     609.6000     130.0000       0.0000 
 20                              3                               20                                 2200.0000    1016.0000     130.0000       0.0000 
 21                              20                              21                                 1500.0000     508.0000     130.0000       0.0000 
 22                              21                              22                                  500.0000     304.8000     130.0000       0.0000 
 23                              20                              23                                 2650.0000    1016.0000     130.0000       0.0000 
 24                              23                              24                                 1230.0000     762.0000     130.0000       0.0000 
 25                              24                              25                                 1300.0000     762.0000     130.0000       0.0000 
 26                              26                              25                                  850.0000     508.0000     130.0000       0.0000 
 27                              27                              26                                  300.0000     304.8000     130.0000       0.0000 
 28                              16                              27                                  750.0000     304.8000     130.0000       0.0000 
 29                              23                              28                                 1500.0000     406.4000     130.0000       0.0000 
 30                              28                              29                                 2000.0000     406.4000     130.0000       0.0000 
 31                              29                              30                                 1600.0000     304.8000     130.0000       0.0000 
 32                              30                              31                                  150.0000     304.8000     130.0000       0.0000 
 33                              32                              31                                  860.0000     406.4000     130.0000       0.0000 
 34                              25                              32                                  950.0000     508.0000     130.0000       0.0000 

[PUMPS]

[VALVES]

[DEMANDS]
 2                                   247.220000 
 3                                   236.110000 
 4                                    36.110000 
 5                                   201.390000 
 6                                   279.170000 
 7                                   375.000000 
 8                                   152.780000 
 9                                   145.830000 
 10                                  145.830000 
 11                                  138.890000 
 12                                  155.560000 
 13                                  261.110000 
 14                                  170.830000 
 15                                   77.780000 
 16                                   86.110000 
 17                                  240.280000 
 18                                  373.610000 
 19                                   16.670000 
 20                                  354.170000 
 21                                  258.330000 
 22                                  134.720000 
 23                                  290.280000 
 24                                  227.780000 
 25                                   47.220000 
 26                                  250.000000 
 27                                  102.780000 
 28                                   80.560000 
 29                                  100.000000 
 30                                  100.000000 
 31                                   29.170000 
 32                                  223.610000 

[EMITTERS]

[STATUS]

[PATTERNS]

[CURVES]

[CONTROLS]

[QUALITY]

[SOURCES]

[MIXING]

[REACTIONS]
 ORDER  BULK            1.00
 ORDER  WALL            1
 ORDER  TANK            1.00
 GLOBAL BULK            0.000000
 GLOBAL WALL            0.000000

[ENERGY]
 GLOBAL EFFIC        75.0000
 DEMAND CHARGE       0.0000

[TIMES]
 DURATION            0:00:00
 HYDRAULIC TIMESTEP  1:00:00
 QUALITY TIMESTEP    0:05:00
 REPORT TIMESTEP     1:00:00
 REPORT START        0:00:00
 PATTERN TIMESTEP    1:00:00
 PATTERN START       0:00:00
 RULE TIMESTEP       0:06:00
 START CLOCKTIME     0:00:00
 STATISTIC           NONE

[OPTIONS]
 UNITS               LPS
 PRESSURE            METERS
 HEADLOSS            H-W
 UNBALANCED          CONTINUE 10
 QUALITY             NONE
 DEMAND MULTIPLIER   1.0000
 EMITTER EXPONENT    0.5000
 VISCOSITY           1.000000
 DIFFUSIVITY         1.000000
 SPECIFIC GRAVITY    1.000000
 TRIALS              40
 ACCURACY            0.00001000
 TOLERANCE           0.01000000
 CHECKFREQ           2
 MAXCHECK            10
 DAMPLIMIT           0.00000000

[REPORT]
 PAGESIZE            0
 STATUS              NO
 SUMMARY             NO
 ENERGY              NO
 MESSAGES            YES
 NODES               NONE
 LINKS               NONE
 Elevation           NO
 Demand              PRECISION 2
 Head                PRECISION 2
 Pressure            PRECISION 2
 Quality             NO
 Length              NO
 Diameter            NO
 Flow                PRECISION 2
 Velocity            PRECISION 2
 Headloss            PRECISION 2
 Quality             NO
 State               NO
 Setting             NO
 Reaction            NO



[RULES]
[COORDINATES]
 2               	5251.17         	5268.69         
 3               	5227.80         	5969.63         
 4               	6068.93         	5969.63         
 5               	6676.40         	5969.63         
 6               	7260.51         	5969.63         
 7               	7260.51         	6600.47         
 8               	7260.51         	7301.40         
 9               	7260.51         	7990.65         
 10              	6793.22         	7990.65         
 11              	6793.22         	8551.40         
 12              	6793.22         	8960.28         
 13              	6150.70         	8960.28         
 14              	6302.57         	7990.65         
 15              	5683.41         	7990.65         
 16              	5216.12         	7990.65         
 17              	5216.12         	7535.05         
 18              	5227.80         	7137.85         
 19              	5227.80         	6542.06         
 20              	4550.23         	5969.63         
 21              	4550.23         	5303.74         
 22              	4550.23         	4591.12         
 23              	3977.80         	5969.63         
 24              	3977.80         	7172.90         
 25              	3954.44         	7990.65         
 26              	4410.05         	7990.65         
 27              	4818.93         	7990.65         
 28              	3405.37         	5969.63         
 29              	2716.12         	6004.67         
 30              	2716.12         	6904.21         
 31              	2716.12         	7990.65         
 32              	3405.37         	7990.65         
 1               	5251.17         	4485.98         
[VERTICES]
[LABELS]
[BACKDROP]
 DIMENSIONS     	0.00            	0.00            	10000.00        	10000.00        
 UNITS          	None
 FILE           	
 OFFSET         	0.00            	0.00            
[END]
