[TITLE]


[JUNCTIONS]
;ID              	Elev        	Demand      	Pattern         
 152             	255         	92.4        	                	;
 153             	255         	92.4        	                	;
 154             	255         	88.2        	                	;
 155             	255         	88.2        	                	;
 156             	255         	88.2        	                	;
 157             	255         	88.2        	                	;
 158             	255         	88.2        	                	;
 159             	255         	170         	                	;
 160             	255         	1           	                	;
 161             	255         	170         	                	;
 162             	255         	117.1       	                	;
 163             	255         	117.1       	                	;
 164             	255         	92.4        	                	;
 165             	255         	92.4        	                	;
 166             	260         	170         	                	;
 167             	272.8       	57.5        	                	;
 168             	255         	117.1       	                	;
 169             	255         	117.1       	                	;
 170             	255         	170         	                	; 
 252             	255         	92.4        	                	;
 253             	255         	92.4        	                	;
 254             	255         	88.2        	                	;
 255             	255         	88.2        	                	;
 256             	255         	88.2        	                	;
 257             	255         	88.2        	                	;
 258             	255         	88.2        	                	;
 259             	255         	170         	                	;
 260             	255         	1           	                	;
 261             	255         	170         	                	;
 262             	255         	117.1       	                	;
 263             	255         	117.1       	                	;
 264             	255         	92.4        	                	;
 265             	255         	92.4        	                	;
 266             	260         	170         	                	;
 267             	272.8       	57.5        	                	;
 268             	255         	117.1       	                	;
 269             	255         	117.1       	                	;
 270             	255         	170         	                	; 
 352             	255         	92.4        	                	;
 353             	255         	92.4        	                	;
 354             	255         	88.2        	                	;
 355             	255         	88.2        	                	;
 356             	255         	88.2        	                	;
 357             	255         	88.2        	                	;
 358             	255         	88.2        	                	;
 359             	255         	170         	                	;
 360             	255         	1           	                	;
 361             	255         	170         	                	;
 362             	255         	117.1       	                	;
 363             	255         	117.1       	                	;
 364             	255         	92.4        	                	;
 365             	255         	92.4        	                	;
 366             	260         	170         	                	;
 367             	272.8       	57.5        	                	;
 368             	255         	117.1       	                	;
 369             	255         	117.1       	                	;
 370             	255         	170         	                	; 
 452             	255         	92.4        	                	;
 453             	255         	92.4        	                	;
 454             	255         	88.2        	                	;
 455             	255         	88.2        	                	;
 456             	255         	88.2        	                	;
 457             	255         	88.2        	                	;
 458             	255         	88.2        	                	;
 459             	255         	170         	                	;
 460             	255         	1           	                	;
 461             	255         	170         	                	;
 462             	255         	117.1       	                	;
 463             	255         	117.1       	                	;
 464             	255         	92.4        	                	;
 465             	255         	92.4        	                	;
 466             	260         	170         	                	;
 467             	272.8       	57.5        	                	;
 468             	255         	117.1       	                	;
 469             	255         	117.1       	                	;
 470             	255         	170         	                	; 
 552             	255         	92.4        	                	;
 553             	255         	92.4        	                	;
 554             	255         	88.2        	                	;
 555             	255         	88.2        	                	;
 556             	255         	88.2        	                	;
 557             	255         	88.2        	                	;
 558             	255         	88.2        	                	;
 559             	255         	170         	                	;
 560             	255         	1           	                	;
 561             	255         	170         	                	;
 562             	255         	117.1       	                	;
 563             	255         	117.1       	                	;
 564             	255         	92.4        	                	;
 565             	255         	92.4        	                	;
 566             	260         	170         	                	;
 567             	272.8       	57.5        	                	;
 568             	255         	117.1       	                	;
 569             	255         	117.1       	                	;
 570             	255         	170         	                	; 
 652             	255         	92.4        	                	;
 653             	255         	92.4        	                	;
 654             	255         	88.2        	                	;
 655             	255         	88.2        	                	;
 656             	255         	88.2        	                	;
 657             	255         	88.2        	                	;
 658             	255         	88.2        	                	;
 659             	255         	170         	                	;
 660             	255         	1           	                	;
 661             	255         	170         	                	;
 662             	255         	117.1       	                	;
 663             	255         	117.1       	                	;
 664             	255         	92.4        	                	;
 665             	255         	92.4        	                	;
 666             	260         	170         	                	;
 667             	272.8       	57.5        	                	;
 668             	255         	117.1       	                	;
 669             	255         	117.1       	                	;
 670             	255         	170         	                	; 
 752             	255         	92.4        	                	;
 753             	255         	92.4        	                	;
 754             	255         	88.2        	                	;
 755             	255         	88.2        	                	;
 756             	255         	88.2        	                	;
 757             	255         	88.2        	                	;
 758             	255         	88.2        	                	;
 759             	255         	170         	                	;
 760             	255         	1           	                	;
 761             	255         	170         	                	;
 762             	255         	117.1       	                	;
 763             	255         	117.1       	                	;
 764             	255         	92.4        	                	;
 765             	255         	92.4        	                	;
 766             	260         	170         	                	;
 767             	272.8       	57.5        	                	;
 768             	255         	117.1       	                	;
 769             	255         	117.1       	                	;
 770             	255         	170         	                	; 
 852             	255         	92.4        	                	;
 853             	255         	92.4        	                	;
 854             	255         	88.2        	                	;
 855             	255         	88.2        	                	;
 856             	255         	88.2        	                	;
 857             	255         	88.2        	                	;
 858             	255         	88.2        	                	;
 859             	255         	170         	                	;
 860             	255         	1           	                	;
 861             	255         	170         	                	;
 862             	255         	117.1       	                	;
 863             	255         	117.1       	                	;
 864             	255         	92.4        	                	;
 865             	255         	92.4        	                	;
 866             	260         	170         	                	;
 867             	272.8       	57.5        	                	;
 868             	255         	117.1       	                	;
 869             	255         	117.1       	                	;
 870             	255         	170         	                	; 
 952             	255         	92.4        	                	;
 953             	255         	92.4        	                	;
 954             	255         	88.2        	                	;
 955             	255         	88.2        	                	;
 956             	255         	88.2        	                	;
 957             	255         	88.2        	                	;
 958             	255         	88.2        	                	;
 959             	255         	170         	                	;
 960             	255         	1           	                	;
 961             	255         	170         	                	;
 962             	255         	117.1       	                	;
 963             	255         	117.1       	                	;
 964             	255         	92.4        	                	;
 965             	255         	92.4        	                	;
 966             	260         	170         	                	;
 967             	272.8       	57.5        	                	;
 968             	255         	117.1       	                	;
 969             	255         	117.1       	                	;
 970             	255         	170         	                	; 
 1052            	255         	92.4        	                	;
 1053            	255         	92.4        	                	;
 1054            	255         	88.2        	                	;
 1055            	255         	88.2        	                	;
 1056            	255         	88.2        	                	;
 1057            	255         	88.2        	                	;
 1058            	255         	88.2        	                	;
 1059            	255         	170         	                	;
 1060            	255         	1           	                	;
 1061            	255         	170         	                	;
 1062            	255         	117.1       	                	;
 1063            	255         	117.1       	                	;
 1064            	255         	92.4        	                	;
 1065            	255         	92.4        	                	;
 1066            	260         	170         	                	;
 1067            	272.8       	57.5        	                	;
 1068            	255         	117.1       	                	;
 1069            	255         	117.1       	                	;
 1070            	255         	170         	                	; 
 1152            	255         	92.4        	                	;
 1153            	255         	92.4        	                	;
 1154            	255         	88.2        	                	;
 1155            	255         	88.2        	                	;
 1156            	255         	88.2        	                	;
 1157            	255         	88.2        	                	;
 1158            	255         	88.2        	                	;
 1159            	255         	170         	                	;
 1160            	255         	1           	                	;
 1161            	255         	170         	                	;
 1162            	255         	117.1       	                	;
 1163            	255         	117.1       	                	;
 1164            	255         	92.4        	                	;
 1165            	255         	92.4        	                	;
 1166            	260         	170         	                	;
 1167            	272.8       	57.5        	                	;
 1168            	255         	117.1       	                	;
 1169            	255         	117.1       	                	;
 1170            	255         	170         	                	; 
 1252            	255         	92.4        	                	;
 1253            	255         	92.4        	                	;
 1254            	255         	88.2        	                	;
 1255            	255         	88.2        	                	;
 1256            	255         	88.2        	                	;
 1257            	255         	88.2        	                	;
 1258            	255         	88.2        	                	;
 1259            	255         	170         	                	;
 1260            	255         	1           	                	;
 1261            	255         	170         	                	;
 1262            	255         	117.1       	                	;
 1263            	255         	117.1       	                	;
 1264            	255         	92.4        	                	;
 1265            	255         	92.4        	                	;
 1266            	260         	170         	                	;
 1267            	272.8       	57.5        	                	;
 1268            	255         	117.1       	                	;
 1269            	255         	117.1       	                	;
 1270            	255         	170         	                	; 
 1352            	255         	92.4        	                	;
 1353            	255         	92.4        	                	;
 1354            	255         	88.2        	                	;
 1355            	255         	88.2        	                	;
 1356            	255         	88.2        	                	;
 1357            	255         	88.2        	                	;
 1358            	255         	88.2        	                	;
 1359            	255         	170         	                	;
 1360            	255         	1           	                	;
 1361            	255         	170         	                	;
 1362            	255         	117.1       	                	;
 1363            	255         	117.1       	                	;
 1364            	255         	92.4        	                	;
 1365            	255         	92.4        	                	;
 1366            	260         	170         	                	;
 1367            	272.8       	57.5        	                	;
 1368            	255         	117.1       	                	;
 1369            	255         	117.1       	                	;
 1370            	255         	170         	                	; 
 1452            	255         	92.4        	                	;
 1453            	255         	92.4        	                	;
 1454            	255         	88.2        	                	;
 1455            	255         	88.2        	                	;
 1456            	255         	88.2        	                	;
 1457            	255         	88.2        	                	;
 1458            	255         	88.2        	                	;
 1459            	255         	170         	                	;
 1460            	255         	1           	                	;
 1461            	255         	170         	                	;
 1462            	255         	117.1       	                	;
 1463            	255         	117.1       	                	;
 1464            	255         	92.4        	                	;
 1465            	255         	92.4        	                	;
 1466            	260         	170         	                	;
 1467            	272.8       	57.5        	                	;
 1468            	255         	117.1       	                	;
 1469            	255         	117.1       	                	;
 1470            	255         	170         	                	; 
 1552            	255         	92.4        	                	;
 1553            	255         	92.4        	                	;
 1554            	255         	88.2        	                	;
 1555            	255         	88.2        	                	;
 1556            	255         	88.2        	                	;
 1557            	255         	88.2        	                	;
 1558            	255         	88.2        	                	;
 1559            	255         	170         	                	;
 1560            	255         	1           	                	;
 1561            	255         	170         	                	;
 1562            	255         	117.1       	                	;
 1563            	255         	117.1       	                	;
 1564            	255         	92.4        	                	;
 1565            	255         	92.4        	                	;
 1566            	260         	170         	                	;
 1567            	272.8       	57.5        	                	;
 1568            	255         	117.1       	                	;
 1569            	255         	117.1       	                	;
 1570            	255         	170         	                	; 
 1652            	255         	92.4        	                	;
 1653            	255         	92.4        	                	;
 1654            	255         	88.2        	                	;
 1655            	255         	88.2        	                	;
 1656            	255         	88.2        	                	;
 1657            	255         	88.2        	                	;
 1658            	255         	88.2        	                	;
 1659            	255         	170         	                	;
 1660            	255         	1           	                	;
 1661            	255         	170         	                	;
 1662            	255         	117.1       	                	;
 1663            	255         	117.1       	                	;
 1664            	255         	92.4        	                	;
 1665            	255         	92.4        	                	;
 1666            	260         	170         	                	;
 1667            	272.8       	57.5        	                	;
 1668            	255         	117.1       	                	;
 1669            	255         	117.1       	                	;
 1670            	255         	170         	                	; 
 1752            	255         	92.4        	                	;
 1753            	255         	92.4        	                	;
 1754            	255         	88.2        	                	;
 1755            	255         	88.2        	                	;
 1756            	255         	88.2        	                	;
 1757            	255         	88.2        	                	;
 1758            	255         	88.2        	                	;
 1759            	255         	170         	                	;
 1760            	255         	1           	                	;
 1761            	255         	170         	                	;
 1762            	255         	117.1       	                	;
 1763            	255         	117.1       	                	;
 1764            	255         	92.4        	                	;
 1765            	255         	92.4        	                	;
 1766            	260         	170         	                	;
 1767            	272.8       	57.5        	                	;
 1768            	255         	117.1       	                	;
 1769            	255         	117.1       	                	;
 1770            	255         	170         	                	; 
 1852            	255         	92.4        	                	;
 1853            	255         	92.4        	                	;
 1854            	255         	88.2        	                	;
 1855            	255         	88.2        	                	;
 1856            	255         	88.2        	                	;
 1857            	255         	88.2        	                	;
 1858            	255         	88.2        	                	;
 1859            	255         	170         	                	;
 1860            	255         	1           	                	;
 1861            	255         	170         	                	;
 1862            	255         	117.1       	                	;
 1863            	255         	117.1       	                	;
 1864            	255         	92.4        	                	;
 1865            	255         	92.4        	                	;
 1866            	260         	170         	                	;
 1867            	272.8       	57.5        	                	;
 1868            	255         	117.1       	                	;
 1869            	255         	117.1       	                	;
 1870            	255         	170         	                	; 
 1952            	255         	92.4        	                	;
 1953            	255         	92.4        	                	;
 1954            	255         	88.2        	                	;
 1955            	255         	88.2        	                	;
 1956            	255         	88.2        	                	;
 1957            	255         	88.2        	                	;
 1958            	255         	88.2        	                	;
 1959            	255         	170         	                	;
 1960            	255         	1           	                	;
 1961            	255         	170         	                	;
 1962            	255         	117.1       	                	;
 1963            	255         	117.1       	                	;
 1964            	255         	92.4        	                	;
 1965            	255         	92.4        	                	;
 1966            	260         	170         	                	;
 1967            	272.8       	57.5        	                	;
 1968            	255         	117.1       	                	;
 1969            	255         	117.1       	                	;
 1970            	255         	170         	                	; 
 2052            	255         	92.4        	                	;
 2053            	255         	92.4        	                	;
 2054            	255         	88.2        	                	;
 2055            	255         	88.2        	                	;
 2056            	255         	88.2        	                	;
 2057            	255         	88.2        	                	;
 2058            	255         	88.2        	                	;
 2059            	255         	170         	                	;
 2060            	255         	1           	                	;
 2061            	255         	170         	                	;
 2062            	255         	117.1       	                	;
 2063            	255         	117.1       	                	;
 2064            	255         	92.4        	                	;
 2065            	255         	92.4        	                	;
 2066            	260         	170         	                	;
 2067            	272.8       	57.5        	                	;
 2068            	255         	117.1       	                	;
 2069            	255         	117.1       	                	;
 2070            	255         	170         	                	; 
 2152            	255         	92.4        	                	;
 2153            	255         	92.4        	                	;
 2154            	255         	88.2        	                	;
 2155            	255         	88.2        	                	;
 2156            	255         	88.2        	                	;
 2157            	255         	88.2        	                	;
 2158            	255         	88.2        	                	;
 2159            	255         	170         	                	;
 2160            	255         	1           	                	;
 2161            	255         	170         	                	;
 2162            	255         	117.1       	                	;
 2163            	255         	117.1       	                	;
 2164            	255         	92.4        	                	;
 2165            	255         	92.4        	                	;
 2166            	260         	170         	                	;
 2167            	272.8       	57.5        	                	;
 2168            	255         	117.1       	                	;
 2169            	255         	117.1       	                	;
 2170            	255         	170         	                	; 
 2252            	255         	92.4        	                	;
 2253            	255         	92.4        	                	;
 2254            	255         	88.2        	                	;
 2255            	255         	88.2        	                	;
 2256            	255         	88.2        	                	;
 2257            	255         	88.2        	                	;
 2258            	255         	88.2        	                	;
 2259            	255         	170         	                	;
 2260            	255         	1           	                	;
 2261            	255         	170         	                	;
 2262            	255         	117.1       	                	;
 2263            	255         	117.1       	                	;
 2264            	255         	92.4        	                	;
 2265            	255         	92.4        	                	;
 2266            	260         	170         	                	;
 2267            	272.8       	57.5        	                	;
 2268            	255         	117.1       	                	;
 2269            	255         	117.1       	                	;
 2270            	255         	170         	                	; 
 2352            	255         	92.4        	                	;
 2353            	255         	92.4        	                	;
 2354            	255         	88.2        	                	;
 2355            	255         	88.2        	                	;
 2356            	255         	88.2        	                	;
 2357            	255         	88.2        	                	;
 2358            	255         	88.2        	                	;
 2359            	255         	170         	                	;
 2360            	255         	1           	                	;
 2361            	255         	170         	                	;
 2362            	255         	117.1       	                	;
 2363            	255         	117.1       	                	;
 2364            	255         	92.4        	                	;
 2365            	255         	92.4        	                	;
 2366            	260         	170         	                	;
 2367            	272.8       	57.5        	                	;
 2368            	255         	117.1       	                	;
 2369            	255         	117.1       	                	;
 2370            	255         	170         	                	; 
 2452            	255         	92.4        	                	;
 2453            	255         	92.4        	                	;
 2454            	255         	88.2        	                	;
 2455            	255         	88.2        	                	;
 2456            	255         	88.2        	                	;
 2457            	255         	88.2        	                	;
 2458            	255         	88.2        	                	;
 2459            	255         	170         	                	;
 2460            	255         	1           	                	;
 2461            	255         	170         	                	;
 2462            	255         	117.1       	                	;
 2463            	255         	117.1       	                	;
 2464            	255         	92.4        	                	;
 2465            	255         	92.4        	                	;
 2466            	260         	170         	                	;
 2467            	272.8       	57.5        	                	;
 2468            	255         	117.1       	                	;
 2469            	255         	117.1       	                	;
 2470            	255         	170         	                	; 
 2552            	255         	92.4        	                	;
 2553            	255         	92.4        	                	;
 2554            	255         	88.2        	                	;
 2555            	255         	88.2        	                	;
 2556            	255         	88.2        	                	;
 2557            	255         	88.2        	                	;
 2558            	255         	88.2        	                	;
 2559            	255         	170         	                	;
 2560            	255         	1           	                	;
 2561            	255         	170         	                	;
 2562            	255         	117.1       	                	;