[TITLE]

[JUNCTIONS]
 2                                   255.0000
 3                                   255.0000
 4                                   255.0000
 5                                   255.0000
 6                                   255.0000
 7                                   255.0000
 8                                   255.0000
 9                                   255.0000
 10                                  255.0000
 11                                  255.0000
 12                                  255.0000
 13                                  255.0000
 14                                  255.0000
 15                                  255.0000
 16                                  260.0000
 17                                  272.8000
 18                                  255.0000
 19                                  255.0000
 20                                  255.0000

[RESERVOIRS]
 1                                   300.0000 

[TANKS]

[PIPES]
 1                               1                               2                                 11600.0000     180.0000     100.0000       0.0000 
 2                               2                               3                                 19800.0000     180.0000     100.0000       0.0000 
 3                               3                               4                                  7300.0000     180.0000     100.0000       0.0000 
 4                               4                               5                                  8300.0000     180.0000     100.0000       0.0000 
 5                               5                               6                                  8600.0000     180.0000     100.0000       0.0000 
 6                               6                               7                                 19100.0000     180.0000     100.0000       0.0000 
 7                               7                               8                                  9600.0000     132.0000     100.0000       0.0000 
 8                               8                               9                                 12500.0000     132.0000     100.0000       0.0000 
 9                               9                               10                                 9600.0000     180.0000     100.0000       0.0000 
 10                              9                               11                                11200.0000     204.0000     100.0000       0.0000 
 11                              11                              12                                14500.0000     204.0000     100.0000       0.0000 
 12                              12                              13                                12200.0000     204.0000     100.0000       0.0000 
 13                              13                              14                                24100.0000     204.0000     100.0000       0.0000 
 14                              14                              15                                21100.0000     204.0000     100.0000       0.0000 
 15                              15                              1                                 15500.0000     204.0000     100.0000       0.0000 
 16                              10                              17                                26400.0000      72.0000     100.0000       0.0000 
 17                              12                              18                                31200.0000      72.0000     100.0000       0.0000 
 18                              18                              19                                24000.0000      60.0000     100.0000       0.0000 
 19                              11                              20                                14400.0000      60.0000     100.0000       0.0000 
 20                              20                              16                                38400.0000      60.0000     100.0000       0.0000 
 21                              16                              9                                 26400.0000      72.0000     100.0000       0.0000 
 22                              1                               2                                 11600.0000     180.0000     100.0000       0.0000 
 23                              2                               3                                 19800.0000     180.0000     100.0000       0.0000 
 24                              3                               4                                  7300.0000     180.0000     100.0000       0.0000 
 25                              4                               5                                  8300.0000     180.0000     100.0000       0.0000 
 26                              5                               6                                  8600.0000     180.0000     100.0000       0.0000 
 27                              6                               7                                 19100.0000     180.0000     100.0000       0.0000 
 28                              7                               8                                  9600.0000     132.0000     100.0000       0.0000 
 29                              8                               9                                 12500.0000     132.0000     100.0000       0.0000 
 30                              9                               10                                 9600.0000     180.0000     100.0000       0.0000 
 31                              9                               11                                11200.0000     204.0000     100.0000       0.0000 
 32                              11                              12                                14500.0000     204.0000     100.0000       0.0000 
 33                              12                              13                                12200.0000     204.0000     100.0000       0.0000 
 34                              13                              14                                24100.0000     204.0000     100.0000       0.0000 
 35                              14                              15                                21100.0000     204.0000     100.0000       0.0000 
 36                              15                              1                                 15500.0000     204.0000     100.0000       0.0000 
 37                              10                              17                                26400.0000      72.0000     100.0000       0.0000 
 38                              12                              18                                31200.0000      72.0000     100.0000       0.0000 
 39                              18                              19                                24000.0000      60.0000     100.0000       0.0000 
 40                              11                              20                                14400.0000      60.0000     100.0000       0.0000 
 41                              20                              16                                38400.0000      60.0000     100.0000       0.0000 
 42                              16                              9                                 26400.0000      72.0000     100.0000       0.0000 

[PUMPS]

[VALVES]

[DEMANDS]
 2                                    92.400000 
 3                                    92.400000 
 4                                    88.200000 
 5                                    88.200000 
 6                                    88.200000 
 7                                    88.200000 
 8                                    88.200000 
 9                                   170.000000 
 10                                    1.000000 
 11                                  170.000000 
 12                                  117.100000 
 13                                  117.100000 
 14                                   92.400000 
 15                                   92.400000 
 16                                  170.000000 
 17                                   57.500000 
 18                                  117.100000 
 19                                  117.100000 
 20                                  170.000000 

[EMITTERS]

[STATUS]

[PATTERNS]

[CURVES]

[CONTROLS]

[QUALITY]

[SOURCES]

[MIXING]

[REACTIONS]
 ORDER  BULK            1.00
 ORDER  WALL            1
 ORDER  TANK            1.00
 GLOBAL BULK            0.000000
 GLOBAL WALL            0.000000

[ENERGY]
 GLOBAL EFFIC        75.0000
 DEMAND CHARGE       0.0000

[TIMES]
 DURATION            0:00:00
 HYDRAULIC TIMESTEP  1:00:00
 QUALITY TIMESTEP    0:05:00
 REPORT TIMESTEP     1:00:00
 REPORT START        0:00:00
 PATTERN TIMESTEP    1:00:00
 PATTERN START       0:00:00
 RULE TIMESTEP       0:06:00
 START CLOCKTIME     0:00:00
 STATISTIC           NONE

[OPTIONS]
 UNITS               CFS
 PRESSURE            PSI
 HEADLOSS            H-W
 UNBALANCED          CONTINUE 10
 QUALITY             NONE
 DEMAND MULTIPLIER   1.0000
 EMITTER EXPONENT    0.5000
 VISCOSITY           1.000000
 DIFFUSIVITY         1.000000
 SPECIFIC GRAVITY    1.000000
 TRIALS              40
 ACCURACY            0.00100000
 TOLERANCE           0.01000000
 CHECKFREQ           2
 MAXCHECK            10
 DAMPLIMIT           0.00000000

[REPORT]
 PAGESIZE            0
 STATUS              NO
 SUMMARY             NO
 ENERGY              NO
 MESSAGES            YES
 NODES               NONE
 LINKS               NONE
 Elevation           NO
 Demand              PRECISION 2
 Head                PRECISION 2
 Pressure            PRECISION 2
 Quality             NO
 Length              NO
 Diameter            NO
 Flow                PRECISION 2
 Velocity            PRECISION 2
 Headloss            PRECISION 2
 Quality             NO
 State               NO
 Setting             NO
 Reaction            NO



[RULES]
[COORDINATES]
 2               	2998.42         	7784.81         
 3               	2397.15         	6882.91         
 4               	2143.99         	5933.54         
 5               	2191.46         	5000.00         
 6               	2254.75         	4082.28         
 7               	2587.03         	3212.03         
 8               	3077.53         	2436.71         
 9               	4295.89         	2120.25         
 10              	3963.61         	1471.52         
 11              	5498.42         	2420.89         
 12              	6194.62         	3275.32         
 13              	6305.38         	4667.72         
 14              	6020.57         	6234.18         
 15              	5450.95         	7705.70         
 16              	5577.53         	1234.18         
 17              	3441.46         	743.67          
 18              	7302.22         	3291.14         
 19              	8488.92         	3354.43         
 20              	6495.25         	1851.27         
 1               	4280.06         	8544.30         
[VERTICES]
 1               	3473.10         	8354.43         
 2               	2381.33         	7468.35         
 3               	1954.11         	6455.70         
 4               	1890.82         	5458.86         
 5               	1938.29         	4572.78         
 6               	2128.16         	3481.01         
 7               	2444.62         	2642.41         
 8               	3235.76         	1993.67         
 9               	3868.67         	1787.97         
 10              	4770.57         	2531.65         
 11              	5577.53         	2974.68         
 12              	5941.46         	4018.99         
 13              	5751.58         	5490.51         
 14              	5276.90         	6867.09         
 15              	4454.11         	7848.10         
 16              	3884.49         	1012.66         
 17              	6716.77         	2958.86         
 18              	7840.19         	3037.97         
 19              	6257.91         	2389.24         
 20              	6194.62         	1376.58         
 21              	4865.51         	1424.05         
[LABELS]
[BACKDROP]
 DIMENSIONS     	0.00            	0.00            	10000.00        	10000.00        
 UNITS          	None
 FILE           	
 OFFSET         	0.00            	0.00            
[END]
